Version 4
SHEET 1 1560 744
WIRE 112 80 112 64
WIRE 160 80 112 80
WIRE 256 80 240 80
WIRE 384 80 384 64
WIRE 384 80 336 80
WIRE 496 80 496 64
WIRE 528 80 496 80
WIRE 624 80 608 80
WIRE 704 80 688 80
WIRE 800 80 800 64
WIRE 800 80 784 80
WIRE 1104 80 1104 64
WIRE 1104 80 944 80
WIRE 112 128 112 80
WIRE 384 128 384 80
WIRE 496 128 496 80
WIRE 800 128 800 80
WIRE 944 128 944 80
WIRE 1104 160 1056 160
WIRE 1056 176 1056 160
WIRE 1104 176 1104 160
WIRE 112 256 112 208
WIRE 384 256 384 208
WIRE 384 256 112 256
WIRE 496 256 496 208
WIRE 800 256 800 208
WIRE 800 256 496 256
WIRE 944 256 944 208
WIRE 1104 256 944 256
WIRE 112 272 112 256
WIRE 496 272 496 256
WIRE 1104 272 1104 256
WIRE 160 464 112 464
WIRE 256 464 240 464
WIRE 384 464 336 464
WIRE 528 464 496 464
WIRE 624 464 608 464
WIRE 704 464 688 464
WIRE 800 464 784 464
WIRE 1104 464 1104 448
WIRE 1104 464 944 464
WIRE 112 512 112 464
WIRE 384 512 384 464
WIRE 496 512 496 464
WIRE 800 512 800 464
WIRE 944 512 944 464
WIRE 1104 544 1056 544
WIRE 1056 560 1056 544
WIRE 1104 560 1104 544
WIRE 1216 560 1104 560
WIRE 1104 576 1104 560
WIRE 112 640 112 592
WIRE 384 640 384 592
WIRE 384 640 112 640
WIRE 496 640 496 592
WIRE 800 640 800 592
WIRE 800 640 496 640
WIRE 944 640 944 592
WIRE 1104 640 944 640
WIRE 1216 640 1104 640
WIRE 112 656 112 640
WIRE 496 656 496 640
WIRE 1104 656 1104 640
FLAG 1056 176 0
FLAG 496 272 0
FLAG 1104 64 pf1
FLAG 1104 272 pb1
FLAG 112 64 a
FLAG 384 64 b
FLAG 496 64 c
FLAG 800 64 d
FLAG 112 272 0
FLAG 1056 560 0
FLAG 496 656 0
FLAG 1104 448 pf2
FLAG 1104 656 pb2
FLAG 112 656 0
SYMBOL voltage 112 112 R0
WINDOW 3 24 152 Left 2
WINDOW 123 24 124 Left 2
WINDOW 39 0 0 Left 0
SYMATTR InstName V1
SYMATTR Value 1
SYMATTR Value2 AC 1
SYMBOL res 256 64 R90
WINDOW 0 0 56 VBottom 2
WINDOW 3 32 56 VTop 2
SYMATTR InstName R1
SYMATTR Value {Re}
SYMBOL ind 240 96 R270
WINDOW 0 32 56 VTop 2
WINDOW 3 5 56 VBottom 2
SYMATTR InstName L1
SYMATTR Value {Le}
SYMBOL ind 512 96 R270
WINDOW 0 32 56 VTop 2
WINDOW 3 5 56 VBottom 2
SYMATTR InstName L2
SYMATTR Value {Mms}
SYMBOL cap 688 64 R90
WINDOW 0 0 32 VBottom 2
WINDOW 3 32 32 VTop 2
SYMATTR InstName C1
SYMATTR Value {Cms}
SYMBOL res 800 64 R90
WINDOW 0 0 56 VBottom 2
WINDOW 3 32 56 VTop 2
SYMATTR InstName R2
SYMATTR Value {Rms}
SYMBOL res 1088 64 R0
SYMATTR InstName ZAF
SYMATTR Value 1
SYMBOL res 1088 160 R0
SYMATTR InstName ZAB
SYMATTR Value 1
SYMBOL bv 384 112 R0
WINDOW 3 -108 99 Left 2
SYMATTR InstName B1
SYMATTR Value V={Bl}*I(B2)
SYMBOL bv 496 112 R0
WINDOW 3 -35 96 Left 2
SYMATTR InstName B2
SYMATTR Value V={Bl}*I(V1)
SYMBOL bv 800 112 R0
WINDOW 3 -173 119 Left 2
SYMATTR InstName B3
SYMATTR Value V={Sd}*(V(pf1)+V(pb1))
SYMBOL bi2 944 128 R0
WINDOW 3 -71 84 Left 2
SYMATTR InstName B4
SYMATTR Value I={Sd}*I(B2)
SYMBOL voltage 112 496 R0
WINDOW 3 24 152 Left 2
WINDOW 123 24 124 Left 2
WINDOW 39 0 0 Left 0
SYMATTR InstName V2
SYMATTR Value 1
SYMATTR Value2 AC 1
SYMBOL res 256 448 R90
WINDOW 0 0 56 VBottom 2
WINDOW 3 32 56 VTop 2
SYMATTR InstName R3
SYMATTR Value {Re}
SYMBOL ind 240 480 R270
WINDOW 0 32 56 VTop 2
WINDOW 3 5 56 VBottom 2
SYMATTR InstName L3
SYMATTR Value {Le}
SYMBOL ind 512 480 R270
WINDOW 0 32 56 VTop 2
WINDOW 3 5 56 VBottom 2
SYMATTR InstName L4
SYMATTR Value {Mms}
SYMBOL cap 688 448 R90
WINDOW 0 0 32 VBottom 2
WINDOW 3 32 32 VTop 2
SYMATTR InstName C2
SYMATTR Value {Cms}
SYMBOL res 800 448 R90
WINDOW 0 0 56 VBottom 2
WINDOW 3 32 56 VTop 2
SYMATTR InstName R4
SYMATTR Value {Rms}
SYMBOL res 1088 448 R0
SYMATTR InstName ZAF1
SYMATTR Value 1
SYMBOL bv 384 496 R0
WINDOW 3 -108 99 Left 2
SYMATTR InstName B5
SYMATTR Value V={Bl}*I(B6)
SYMBOL bv 496 496 R0
WINDOW 3 -35 96 Left 2
SYMATTR InstName B6
SYMATTR Value V={Bl}*I(V2)
SYMBOL bv 800 496 R0
WINDOW 3 -173 119 Left 2
SYMATTR InstName B7
SYMATTR Value V={Sd}*(V(pf2)+V(pb2))
SYMBOL bi2 944 512 R0
WINDOW 3 -71 84 Left 2
SYMATTR InstName B8
SYMATTR Value I={Sd}*I(B6)
SYMBOL cap 1088 576 R0
SYMATTR InstName C3
SYMATTR Value 4.32e-7
SYMBOL ind 1200 544 R0
SYMATTR InstName L5
SYMATTR Value 56.34
TEXT 112 296 Left 2 !.ac dec 1000 20 20e3
TEXT 112 320 Left 2 !.param Re=3.5 Le=1.18e-3 Bl=8.7 Mms=38.64e-3 Cms=0.3e-3 Rms=2.57 Sd=127e-4
TEXT 112 344 Left 2 ;.tran 0.1 startup
